Version 4
SHEET 1 2344 2032
WIRE 800 1200 704 1200
WIRE 704 1216 704 1200
WIRE 800 1344 800 1200
WIRE 752 1408 592 1408
WIRE 592 1456 592 1408
WIRE 800 1472 800 1440
WIRE 992 1472 800 1472
WIRE 592 1584 592 1536
FLAG 592 1584 0
FLAG 592 1408 IN
FLAG 992 1472 OUT
IOPIN 992 1472 Out
FLAG 800 1552 0
FLAG 704 1296 0
SYMBOL voltage 592 1440 R0
WINDOW 123 -105 61 Left 2
WINDOW 39 0 0 Left 0
WINDOW 3 -370 35 Left 2
SYMATTR Value2 AC 1 0
SYMATTR InstName V3
SYMATTR Value PULSE(0 1 0 1n 1n 100u 1.25)
SYMBOL njf 752 1344 R0
SYMATTR InstName J1
SYMATTR Value LSK389A
SYMBOL res 784 1456 R0
SYMATTR InstName R1
SYMATTR Value 50
SYMBOL voltage 704 1200 R0
WINDOW 39 0 0 Left 0
SYMATTR Value2 AC 1 0
SYMATTR InstName V1
SYMATTR Value 5
TEXT 984 1736 Left 2 !;tran 0 1m 0 .1u
TEXT 984 1704 Left 2 !.noise V(OUT) V3 oct 100 .001 1T
TEXT 984 1680 Left 2 !;ac oct 100 .1 1G
